208908
  Marvin  01020801023D          

 66 70  0  0  0  0            999 V2000
   -4.9709    4.3911    0.4550 Cl  0  0  0  0  0  0  0  0  0  0  0  0
    4.3951   -8.5338   -0.3109 S   0  0  1  0  0  0  0  0  0  0  0  0
   -4.3448    4.5918   -7.5230 F   0  0  0  0  0  0  0  0  0  0  0  0
    1.1052   -3.1082    2.3491 O   0  0  0  0  0  0  0  0  0  0  0  0
    5.7618   -8.4495   -1.1188 O   0  0  0  0  0  0  0  0  0  0  0  0
    4.6832   -9.2901    1.0581 O   0  0  0  0  0  0  0  0  0  0  0  0
   -3.0444    5.1026   -1.6909 O   0  0  0  0  0  0  0  0  0  0  0  0
    1.9497   -5.5263    1.0741 N   0  0  0  0  0  0  0  0  0  0  0  0
   -0.6978    3.2047    2.8436 N   0  0  0  0  0  0  0  0  0  0  0  0
    3.3257    2.8598    3.2362 N   0  0  0  0  0  0  0  0  0  0  0  0
    1.3677    4.1325    3.2291 N   0  0  0  0  0  0  0  0  0  0  0  0
    2.4330   -6.8821    0.7593 C   0  0  0  0  0  0  0  0  0  0  0  0
    3.8007   -6.8633    0.0448 C   0  0  0  0  0  0  0  0  0  0  0  0
    0.6431   -5.4663    1.7625 C   0  0  0  0  0  0  0  0  0  0  0  0
    0.2632   -4.0565    1.8872 C   0  0  0  0  0  0  0  0  0  0  0  0
    1.1766   -0.6911    2.6272 C   0  0  0  0  0  0  0  0  0  0  0  0
    0.5071   -1.8951    2.2996 C   0  0  0  0  0  0  0  0  0  0  0  0
    1.2006    1.7476    2.9928 C   0  0  0  0  0  0  0  0  0  0  0  0
    0.4964    0.5368    2.7939 C   0  0  0  0  0  0  0  0  0  0  0  0
   -0.9388   -3.4457    1.5468 C   0  0  0  0  0  0  0  0  0  0  0  0
   -0.7889   -2.0931    1.8188 C   0  0  0  0  0  0  0  0  0  0  0  0
    2.6189    1.7118    3.0730 C   0  0  0  0  0  0  0  0  0  0  0  0
    2.5875   -0.6941    2.7351 C   0  0  0  0  0  0  0  0  0  0  0  0
    0.5967    3.0252    3.0577 C   0  0  0  0  0  0  0  0  0  0  0  0
    3.2032   -9.4910   -1.2687 C   0  0  0  0  0  0  0  0  0  0  0  0
    3.3058    0.4928    2.9545 C   0  0  0  0  0  0  0  0  0  0  0  0
   -1.2335    3.7451    1.7461 C   0  0  0  0  0  0  0  0  0  0  0  0
    2.7159    4.0652    3.3191 C   0  0  0  0  0  0  0  0  0  0  0  0
   -2.6418    3.8313    1.6625 C   0  0  0  0  0  0  0  0  0  0  0  0
   -0.4749    4.1988    0.6386 C   0  0  0  0  0  0  0  0  0  0  0  0
   -2.5003    4.7289   -0.6060 C   0  0  0  0  0  0  0  0  0  0  0  0
   -3.2770    4.3267    0.5035 C   0  0  0  0  0  0  0  0  0  0  0  0
   -1.0945    4.6918   -0.5160 C   0  0  0  0  0  0  0  0  0  0  0  0
   -3.0277    4.4567   -2.8678 C   0  0  0  0  0  0  0  0  0  0  0  0
   -3.4962    5.2374   -4.0376 C   0  0  0  0  0  0  0  0  0  0  0  0
   -3.7100    4.5566   -5.2600 C   0  0  0  0  0  0  0  0  0  0  0  0
   -3.7196    6.6347   -4.0013 C   0  0  0  0  0  0  0  0  0  0  0  0
   -4.1468    5.2422   -6.4089 C   0  0  0  0  0  0  0  0  0  0  0  0
   -4.1510    7.3268   -5.1482 C   0  0  0  0  0  0  0  0  0  0  0  0
   -4.3675    6.6303   -6.3504 C   0  0  0  0  0  0  0  0  0  0  0  0
    2.5169   -7.4600    1.6836 H   0  0  0  0  0  0  0  0  0  0  0  0
    1.6977   -7.3573    0.1073 H   0  0  0  0  0  0  0  0  0  0  0  0
    4.5437   -6.3634    0.6708 H   0  0  0  0  0  0  0  0  0  0  0  0
    3.7252   -6.3141   -0.8962 H   0  0  0  0  0  0  0  0  0  0  0  0
    0.7315   -5.8907    2.7643 H   0  0  0  0  0  0  0  0  0  0  0  0
   -0.1226   -6.0175    1.2104 H   0  0  0  0  0  0  0  0  0  0  0  0
    1.8570   -5.0236    0.1883 H   0  0  0  0  0  0  0  0  0  0  0  0
   -0.5251    0.5603    2.7546 H   0  0  0  0  0  0  0  0  0  0  0  0
   -1.7697   -3.8976    1.1616 H   0  0  0  0  0  0  0  0  0  0  0  0
   -1.5050   -1.3822    1.6597 H   0  0  0  0  0  0  0  0  0  0  0  0
    3.1299   -1.5561    2.6332 H   0  0  0  0  0  0  0  0  0  0  0  0
    3.5779  -10.5036   -1.4090 H   0  0  0  0  0  0  0  0  0  0  0  0
    3.0498   -9.0236   -2.2404 H   0  0  0  0  0  0  0  0  0  0  0  0
    2.2507   -9.5463   -0.7433 H   0  0  0  0  0  0  0  0  0  0  0  0
    4.3268    0.4600    3.0049 H   0  0  0  0  0  0  0  0  0  0  0  0
   -1.2842    2.8550    3.4837 H   0  0  0  0  0  0  0  0  0  0  0  0
   -3.2163    3.5155    2.4498 H   0  0  0  0  0  0  0  0  0  0  0  0
    0.5469    4.1657    0.6392 H   0  0  0  0  0  0  0  0  0  0  0  0
    3.2668    4.9153    3.4312 H   0  0  0  0  0  0  0  0  0  0  0  0
   -0.5092    5.0113   -1.2918 H   0  0  0  0  0  0  0  0  0  0  0  0
   -2.0234    4.0984   -3.1164 H   0  0  0  0  0  0  0  0  0  0  0  0
   -3.6721    3.5801   -2.7495 H   0  0  0  0  0  0  0  0  0  0  0  0
   -3.5488    3.5471   -5.3225 H   0  0  0  0  0  0  0  0  0  0  0  0
   -3.5654    7.1701   -3.1438 H   0  0  0  0  0  0  0  0  0  0  0  0
   -4.3057    8.3369   -5.1091 H   0  0  0  0  0  0  0  0  0  0  0  0
   -4.6839    7.1372   -7.1801 H   0  0  0  0  0  0  0  0  0  0  0  0
  1 32  1  0  0  0  0
  2  5  2  0  0  0  0
  2  6  2  0  0  0  0
  2 13  1  0  0  0  0
  2 25  1  0  0  0  0
  3 38  1  0  0  0  0
  4 15  1  0  0  0  0
  4 17  1  0  0  0  0
  7 31  1  0  0  0  0
  7 34  1  0  0  0  0
  8 12  1  0  0  0  0
  8 14  1  0  0  0  0
  8 47  1  0  0  0  0
  9 24  1  0  0  0  0
  9 27  1  0  0  0  0
  9 56  1  0  0  0  0
 10 22  1  0  0  0  0
 10 28  2  0  0  0  0
 11 24  2  0  0  0  0
 11 28  1  0  0  0  0
 12 13  1  0  0  0  0
 12 41  1  0  0  0  0
 12 42  1  0  0  0  0
 13 43  1  0  0  0  0
 13 44  1  0  0  0  0
 14 15  1  0  0  0  0
 14 45  1  0  0  0  0
 14 46  1  0  0  0  0
 15 20  2  0  0  0  0
 16 17  1  0  0  0  0
 16 19  2  0  0  0  0
 16 23  1  0  0  0  0
 17 21  2  0  0  0  0
 18 19  1  0  0  0  0
 18 22  2  0  0  0  0
 18 24  1  0  0  0  0
 19 48  1  0  0  0  0
 20 21  1  0  0  0  0
 20 49  1  0  0  0  0
 21 50  1  0  0  0  0
 22 26  1  0  0  0  0
 23 26  2  0  0  0  0
 23 51  1  0  0  0  0
 25 52  1  0  0  0  0
 25 53  1  0  0  0  0
 25 54  1  0  0  0  0
 26 55  1  0  0  0  0
 27 29  2  0  0  0  0
 27 30  1  0  0  0  0
 28 59  1  0  0  0  0
 29 32  1  0  0  0  0
 29 57  1  0  0  0  0
 30 33  2  0  0  0  0
 30 58  1  0  0  0  0
 31 32  2  0  0  0  0
 31 33  1  0  0  0  0
 33 60  1  0  0  0  0
 34 35  1  0  0  0  0
 34 61  1  0  0  0  0
 34 62  1  0  0  0  0
 35 36  2  0  0  0  0
 35 37  1  0  0  0  0
 36 38  1  0  0  0  0
 36 63  1  0  0  0  0
 37 39  2  0  0  0  0
 37 64  1  0  0  0  0
 38 40  2  0  0  0  0
 39 40  1  0  0  0  0
 39 65  1  0  0  0  0
 40 66  1  0  0  0  0
M  END

> <PUBCHEM_BONDANNOTATIONS>
10  22  8
10  28  8
11  24  8
11  28  8
15  20  8
16  19  8
16  23  8
17  21  8
18  19  8
18  22  8
18  24  8
20  21  8
22  26  8
23  26  8
27  29  8
27  30  8
29  32  8
30  33  8
31  32  8
31  33  8
35  36  8
35  37  8
36  38  8
37  39  8
38  40  8
39  40  8
4  15  8
4  17  8

> <StdInChI>
InChI=1S/C29H26ClFN4O4S/c1-40(36,37)12-11-32-16-23-7-10-27(39-23)20-5-8-26-24(14-20)29(34-18-33-26)35-22-6-9-28(25(30)15-22)38-17-19-3-2-4-21(31)13-19/h2-10,13-15,18,32H,11-12,16-17H2,1H3,(H,33,34,35)

> <StdInChIKey>
BCFGMOOMADDAQU-UHFFFAOYSA-N

> <AuxInfo>
1/1/N:25,39,37,40,23,30,20,26,33,21,12,13,36,19,29,14,34,28,35,16,38,27,15,18,32,22,17,31,24,1,3,8,10,11,9,5,6,7,4,2/E:(36,37)/CRV:40.6/rA:66nClSFOOOONNNNCCCCCCCCCCCCCCCCCCCCCCCCCCCCCHHHHHHHHHHHHHHHHHHHHHHHHHH/rB:;;;d2;d2;;;;;;s8;s2s12;s8;s4s14;;s4s16;;d16s18;d15;d17s20;s10d18;s16;s9d11s18;s2;s22d23;s9;d10s11;d27;s27;s7;s1s29d31;d30s31;s7;s34;d35;s35;s3s36;d37;d38s39;s12;s12;s13;s13;s14;s14;s8;s19;s20;s21;s23;s25;s25;s25;s26;s9;s29;s30;s28;s33;s34;s34;s36;s37;s39;s40;/rC:-4.9709,4.3911,.455;4.3951,-8.5338,-.3109;-4.3448,4.5918,-7.523;1.1052,-3.1082,2.3491;5.7618,-8.4495,-1.1188;4.6832,-9.2901,1.0581;-3.0444,5.1026,-1.6909;1.9497,-5.5263,1.0741;-.6978,3.2047,2.8436;3.3257,2.8598,3.2362;1.3677,4.1325,3.2291;2.433,-6.8821,.7593;3.8007,-6.8633,.0448;.6431,-5.4663,1.7625;.2632,-4.0565,1.8872;1.1766,-.6911,2.6272;.5071,-1.8951,2.2996;1.2006,1.7476,2.9928;.4964,.5368,2.7939;-.9388,-3.4457,1.5468;-.7889,-2.0931,1.8188;2.6189,1.7118,3.073;2.5875,-.6941,2.7351;.5967,3.0252,3.0577;3.2032,-9.491,-1.2687;3.3058,.4928,2.9545;-1.2335,3.7451,1.7461;2.7159,4.0652,3.3191;-2.6418,3.8313,1.6625;-.4749,4.1988,.6386;-2.5003,4.7289,-.606;-3.277,4.3267,.5035;-1.0945,4.6918,-.516;-3.0277,4.4567,-2.8678;-3.4962,5.2374,-4.0376;-3.71,4.5566,-5.26;-3.7196,6.6347,-4.0013;-4.1468,5.2422,-6.4089;-4.151,7.3268,-5.1482;-4.3675,6.6303,-6.3504;2.5169,-7.46,1.6836;1.6977,-7.3573,.1073;4.5437,-6.3634,.6708;3.7252,-6.3141,-.8962;.7315,-5.8907,2.7643;-.1226,-6.0175,1.2104;1.857,-5.0236,.1883;-.5251,.5603,2.7546;-1.7697,-3.8976,1.1616;-1.505,-1.3822,1.6597;3.1299,-1.5561,2.6332;3.5779,-10.5036,-1.409;3.0498,-9.0236,-2.2404;2.2507,-9.5463,-.7433;4.3268,.46,3.0049;-1.2842,2.855,3.4837;-3.2163,3.5155,2.4498;.5469,4.1657,.6392;3.2668,4.9153,3.4312;-.5092,5.0113,-1.2918;-2.0234,4.0984,-3.1164;-3.6721,3.5801,-2.7495;-3.5488,3.5471,-5.3225;-3.5654,7.1701,-3.1438;-4.3057,8.3369,-5.1091;-4.6839,7.1372,-7.1801;

> <Formula>
C29 H26 Cl F N4 O4 S

> <Mw>
581.0576

> <SMILES>
ClC1=C(C([H])=C([H])C(=C1[H])N([H])C1C2=C(C([H])=C([H])C(=C2[H])C2=C([H])C([H])=C(C([H])([H])[N@]([H])C([H])([H])C([H])([H])S(C([H])([H])[H])(=O)=O)O2)N=C([H])N=1)OC([H])([H])C1C([H])=C([H])C([H])=C(C=1[H])F

> <CSID>
181006

$$$$
